# generated using pymatgen
data_Ba12Cl5F19
_symmetry_space_group_name_H-M   'P 1'
_cell_length_a   14.14829654
_cell_length_b   14.14829536
_cell_length_c   4.28027215
_cell_angle_alpha   90.00000382
_cell_angle_beta   89.99999266
_cell_angle_gamma   120.00004373
_symmetry_Int_Tables_number   1
_chemical_formula_structural   Ba12Cl5F19
_chemical_formula_sum   'Ba12 Cl5 F19'
_cell_volume   742.01057569
_cell_formula_units_Z   1
loop_
 _symmetry_equiv_pos_site_id
 _symmetry_equiv_pos_as_xyz
  1  'x, y, z'
loop_
 _atom_site_type_symbol
 _atom_site_label
 _atom_site_symmetry_multiplicity
 _atom_site_fract_x
 _atom_site_fract_y
 _atom_site_fract_z
 _atom_site_occupancy
  Ba  Ba0  1  0.17800212  -0.00000020  0.00000008  1
  Ba  Ba1  1  0.83355409  0.30906315  0.49999987  1
  Ba  Ba2  1  -0.00000013  0.62676622  -0.00000004  1
  Ba  Ba3  1  0.47550882  0.16644592  0.49999973  1
  Ba  Ba4  1  0.82199710  0.82199740  -0.00000000  1
  Ba  Ba5  1  0.30906324  0.83355423  0.50000004  1
  Ba  Ba6  1  0.16644576  0.47550888  0.50000028  1
  Ba  Ba7  1  0.69093693  0.52449091  0.50000032  1
  Ba  Ba8  1  -0.00000018  0.17800241  -0.00000016  1
  Ba  Ba9  1  0.52449085  0.69093689  0.50000010  1
  Ba  Ba10  1  0.62676595  0.00000001  -0.00000034  1
  Ba  Ba11  1  0.37323389  0.37323387  -0.00000018  1
  Cl  Cl12  1  -0.00000010  0.81135816  0.50000012  1
  Cl  Cl13  1  0.18864153  0.18864157  0.49999995  1
  Cl  Cl14  1  0.81135807  0.00000003  0.50000002  1
  Cl  Cl15  1  0.66666690  0.33333321  0.00000000  1
  Cl  Cl16  1  0.33333312  0.66666690  0.00000006  1
  F  F17  1  0.18278515  0.37557539  0.00000004  1
  F  F18  1  0.51220486  0.87446009  0.49999998  1
  F  F19  1  0.80720936  0.62442450  0.00000014  1
  F  F20  1  0.43809650  -0.00000020  -0.00000004  1
  F  F21  1  0.00000019  0.27980559  0.50000010  1
  F  F22  1  0.56190326  0.56190331  0.00000006  1
  F  F23  1  0.81721503  0.19279065  -0.00000003  1
  F  F24  1  0.36225571  0.48779553  0.49999999  1
  F  F25  1  0.72019446  0.72019450  0.49999988  1
  F  F26  1  -0.00000013  0.43809665  0.00000009  1
  F  F27  1  0.87446006  0.51220482  0.49999990  1
  F  F28  1  0.37557540  0.18278521  -0.00000012  1
  F  F29  1  0.19279067  0.81721545  0.00000013  1
  F  F30  1  0.62442433  0.80720947  0.00000004  1
  F  F31  1  0.63774407  0.12553996  0.49999997  1
  F  F32  1  0.27980566  0.00000025  0.49999985  1
  F  F33  1  0.48779543  0.36225573  0.50000003  1
  F  F34  1  0.12553997  0.63774439  0.49999991  1
  F  F35  1  0.00000006  0.00000017  0.00000024  1
